123Bus_wye/ieee123_VLN_elem.Txt

NODE-GROUND VOLTAGES BY CIRCUIT ELEMENT

Power Delivery Elements

Bus      (node ref)  Phase    Magnitude, kV (pu)    Angle

ELEMENT = "Vsource.SOURCE"
150       (  1)    1           2.4018 (       1) /_    0.0
150       (  2)    2           2.4018 (       1) /_ -120.0
150       (  3)    3           2.4018 (       1) /_  120.0
------------
150       (  0)    0                0 (       0) /_    0.0
150       (  0)    0                0 (       0) /_    0.0
150       (  0)    0                0 (       0) /_    0.0

ELEMENT = "Transformer.REG1A"
150       (  1)    1           2.4018 (       1) /_    0.0
150       (  2)    2           2.4018 (       1) /_ -120.0
150       (  3)    3           2.4018 (       1) /_  120.0
150       (  0)    0                0 (       0) /_    0.0
------------
150R      (  4)    1           2.5068 (   1.044) /_    0.0
150R      (  5)    2           2.5068 (   1.044) /_ -120.0
150R      (  6)    3           2.5068 (   1.044) /_  120.0
150R      (  0)    0                0 (       0) /_    0.0

ELEMENT = "Line.L115"
149       (  7)    1           2.5068 (   1.044) /_    0.0
149       (  8)    2           2.5068 (   1.044) /_ -120.0
149       (  9)    3           2.5068 (   1.044) /_  120.0
------------
1         ( 10)    1           2.4769 (   1.031) /_   -0.6
1         ( 11)    2           2.5009 (   1.041) /_ -120.3
1         ( 12)    3           2.4855 (   1.035) /_  119.6

ELEMENT = "Line.L1"
1         ( 11)    2           2.5009 (   1.041) /_ -120.3
------------
2         ( 13)    2           2.5004 (   1.041) /_ -120.3

ELEMENT = "Line.L2"
1         ( 12)    3           2.4855 (   1.035) /_  119.6
------------
3         ( 14)    3           2.4816 (   1.033) /_  119.6

ELEMENT = "Line.L3"
1         ( 10)    1           2.4769 (   1.031) /_   -0.6
1         ( 11)    2           2.5009 (   1.041) /_ -120.3
1         ( 12)    3           2.4855 (   1.035) /_  119.6
------------
7         ( 15)    1           2.4546 (   1.022) /_   -1.1
7         ( 16)    2           2.4967 (    1.04) /_ -120.6
7         ( 17)    3           2.4719 (   1.029) /_  119.4

ELEMENT = "Line.L4"
3         ( 14)    3           2.4816 (   1.033) /_  119.6
------------
4         ( 18)    3           2.4804 (   1.033) /_  119.6

ELEMENT = "Line.L5"
3         ( 14)    3           2.4816 (   1.033) /_  119.6
------------
5         ( 19)    3           2.4784 (   1.032) /_  119.6

ELEMENT = "Line.L6"
5         ( 19)    3           2.4784 (   1.032) /_  119.6
------------
6         ( 20)    3           2.4768 (   1.031) /_  119.6

ELEMENT = "Line.L7"
7         ( 15)    1           2.4546 (   1.022) /_   -1.1
7         ( 16)    2           2.4967 (    1.04) /_ -120.6
7         ( 17)    3           2.4719 (   1.029) /_  119.4
------------
8         ( 21)    1           2.4402 (   1.016) /_   -1.4
8         ( 22)    2           2.4938 (   1.038) /_ -120.7
8         ( 23)    3           2.4628 (   1.025) /_  119.2

ELEMENT = "Line.L8"
8         ( 22)    2           2.4938 (   1.038) /_ -120.7
------------
12        ( 24)    2           2.4931 (   1.038) /_ -120.7

ELEMENT = "Line.L9"
8         ( 21)    1           2.4402 (   1.016) /_   -1.4
------------
9         ( 25)    1           2.4366 (   1.015) /_   -1.4

ELEMENT = "Line.L10"
8         ( 21)    1           2.4402 (   1.016) /_   -1.4
8         ( 22)    2           2.4938 (   1.038) /_ -120.7
8         ( 23)    3           2.4628 (   1.025) /_  119.2
------------
13        ( 26)    1            2.421 (   1.008) /_   -1.8
13        ( 27)    2           2.4885 (   1.036) /_ -121.0
13        ( 28)    3           2.4492 (    1.02) /_  118.9

ELEMENT = "Line.L11"
9R        ( 29)    1           2.4214 (   1.008) /_   -1.4
------------
14        ( 30)    1           2.4173 (   1.006) /_   -1.5

ELEMENT = "Line.L12"
13        ( 28)    3           2.4492 (    1.02) /_  118.9
------------
34        ( 31)    3           2.4469 (   1.019) /_  118.9

ELEMENT = "Line.L13"
13        ( 26)    1            2.421 (   1.008) /_   -1.8
13        ( 27)    2           2.4885 (   1.036) /_ -121.0
13        ( 28)    3           2.4492 (    1.02) /_  118.9
------------
18        ( 32)    1           2.3993 (   0.999) /_   -2.3
18        ( 33)    2           2.4786 (   1.032) /_ -121.2
18        ( 34)    3           2.4315 (   1.012) /_  118.8

ELEMENT = "Line.L14"
14        ( 30)    1           2.4173 (   1.006) /_   -1.5
------------
11        ( 35)    1           2.4157 (   1.006) /_   -1.5

ELEMENT = "Line.L15"
14        ( 30)    1           2.4173 (   1.006) /_   -1.5
------------
10        ( 36)    1           2.4165 (   1.006) /_   -1.5

ELEMENT = "Line.L16"
15        ( 37)    3           2.4459 (   1.018) /_  118.9
------------
16        ( 38)    3           2.4436 (   1.017) /_  118.9

ELEMENT = "Line.L17"
15        ( 37)    3           2.4459 (   1.018) /_  118.9
------------
17        ( 39)    3           2.4448 (   1.018) /_  118.9

ELEMENT = "Line.L18"
18        ( 32)    1           2.3993 (   0.999) /_   -2.3
------------
19        ( 40)    1           2.3962 (  0.9977) /_   -2.3

ELEMENT = "Line.L19"
18        ( 32)    1           2.3993 (   0.999) /_   -2.3
18        ( 33)    2           2.4786 (   1.032) /_ -121.2
18        ( 34)    3           2.4315 (   1.012) /_  118.8
------------
21        ( 41)    1            2.398 (  0.9984) /_   -2.3
21        ( 42)    2           2.4787 (   1.032) /_ -121.2
21        ( 43)    3           2.4286 (   1.011) /_  118.8

ELEMENT = "Line.L20"
19        ( 40)    1           2.3962 (  0.9977) /_   -2.3
------------
20        ( 44)    1           2.3941 (  0.9968) /_   -2.3

ELEMENT = "Line.L21"
21        ( 42)    2           2.4787 (   1.032) /_ -121.2
------------
22        ( 45)    2           2.4753 (   1.031) /_ -121.2

ELEMENT = "Line.L22"
21        ( 41)    1            2.398 (  0.9984) /_   -2.3
21        ( 42)    2           2.4787 (   1.032) /_ -121.2
21        ( 43)    3           2.4286 (   1.011) /_  118.8
------------
23        ( 46)    1            2.397 (   0.998) /_   -2.4
23        ( 47)    2           2.4796 (   1.032) /_ -121.2
23        ( 48)    3            2.426 (    1.01) /_  118.8

ELEMENT = "Line.L23"
23        ( 48)    3            2.426 (    1.01) /_  118.8
------------
24        ( 49)    3           2.4225 (   1.009) /_  118.8

ELEMENT = "Line.L24"
23        ( 46)    1            2.397 (   0.998) /_   -2.4
23        ( 47)    2           2.4796 (   1.032) /_ -121.2
23        ( 48)    3            2.426 (    1.01) /_  118.8
------------
25        ( 50)    1           2.3954 (  0.9973) /_   -2.4
25        ( 51)    2           2.4807 (   1.033) /_ -121.2
25        ( 52)    3           2.4238 (   1.009) /_  118.8

ELEMENT = "Line.L25"
25R       ( 53)    1           2.3954 (  0.9973) /_   -2.4
25R       ( 54)    3           2.4087 (   1.003) /_  118.8
------------
26        ( 55)    1           2.3948 (  0.9971) /_   -2.5
26        ( 56)    3           2.4075 (   1.002) /_  118.8

ELEMENT = "Line.L26"
25        ( 50)    1           2.3954 (  0.9973) /_   -2.4
25        ( 51)    2           2.4807 (   1.033) /_ -121.2
25        ( 52)    3           2.4238 (   1.009) /_  118.8
------------
28        ( 57)    1           2.3945 (   0.997) /_   -2.5
28        ( 58)    2           2.4813 (   1.033) /_ -121.2
28        ( 59)    3            2.423 (   1.009) /_  118.8

ELEMENT = "Line.L27"
26        ( 55)    1           2.3948 (  0.9971) /_   -2.5
26        ( 56)    3           2.4075 (   1.002) /_  118.8
------------
27        ( 60)    1           2.3939 (  0.9967) /_   -2.5
27        ( 61)    3           2.4074 (   1.002) /_  118.8

ELEMENT = "Line.L28"
26        ( 56)    3           2.4075 (   1.002) /_  118.8
------------
31        ( 62)    3           2.4061 (   1.002) /_  118.8

ELEMENT = "Line.L29"
27        ( 60)    1           2.3939 (  0.9967) /_   -2.5
------------
33        ( 63)    1           2.3908 (  0.9954) /_   -2.5

ELEMENT = "Line.L30"
28        ( 57)    1           2.3945 (   0.997) /_   -2.5
28        ( 58)    2           2.4813 (   1.033) /_ -121.2
28        ( 59)    3            2.423 (   1.009) /_  118.8
------------
29        ( 64)    1           2.3941 (  0.9968) /_   -2.5
29        ( 65)    2           2.4816 (   1.033) /_ -121.2
29        ( 66)    3           2.4219 (   1.008) /_  118.8

ELEMENT = "Line.L31"
29        ( 64)    1           2.3941 (  0.9968) /_   -2.5
29        ( 65)    2           2.4816 (   1.033) /_ -121.2
29        ( 66)    3           2.4219 (   1.008) /_  118.8
------------
30        ( 67)    1           2.3947 (  0.9971) /_   -2.5
30        ( 68)    2           2.4815 (   1.033) /_ -121.2
30        ( 69)    3           2.4209 (   1.008) /_  118.8

ELEMENT = "Line.L32"
30        ( 67)    1           2.3947 (  0.9971) /_   -2.5
30        ( 68)    2           2.4815 (   1.033) /_ -121.2
30        ( 69)    3           2.4209 (   1.008) /_  118.8
------------
250       ( 70)    1           2.3947 (  0.9971) /_   -2.5
250       ( 71)    2           2.4815 (   1.033) /_ -121.2
250       ( 72)    3           2.4209 (   1.008) /_  118.8

ELEMENT = "Line.L33"
31        ( 62)    3           2.4061 (   1.002) /_  118.8
------------
32        ( 73)    3           2.4051 (   1.001) /_  118.8

ELEMENT = "Line.L34"
34        ( 31)    3           2.4469 (   1.019) /_  118.9
------------
15        ( 37)    3           2.4459 (   1.018) /_  118.9

ELEMENT = "Line.L35"
35        ( 74)    1           2.3927 (  0.9962) /_   -2.4
35        ( 75)    2           2.4725 (   1.029) /_ -121.3
------------
36        ( 76)    1           2.3904 (  0.9953) /_   -2.4
36        ( 77)    2           2.4714 (   1.029) /_ -121.3

ELEMENT = "Line.L36"
35        ( 74)    1           2.3927 (  0.9962) /_   -2.4
35        ( 75)    2           2.4725 (   1.029) /_ -121.3
35        ( 78)    3           2.4289 (   1.011) /_  118.8
------------
40        ( 79)    1            2.389 (  0.9947) /_   -2.4
40        ( 80)    2           2.4697 (   1.028) /_ -121.3
40        ( 81)    3           2.4264 (    1.01) /_  118.7

ELEMENT = "Line.L37"
36        ( 76)    1           2.3904 (  0.9953) /_   -2.4
------------
37        ( 82)    1           2.3885 (  0.9945) /_   -2.4

ELEMENT = "Line.L38"
36        ( 77)    2           2.4714 (   1.029) /_ -121.3
------------
38        ( 83)    2           2.4698 (   1.028) /_ -121.4

ELEMENT = "Line.L39"
38        ( 83)    2           2.4698 (   1.028) /_ -121.4
------------
39        ( 84)    2           2.4688 (   1.028) /_ -121.4

ELEMENT = "Line.L40"
40        ( 81)    3           2.4264 (    1.01) /_  118.7
------------
41        ( 85)    3           2.4254 (    1.01) /_  118.7

ELEMENT = "Line.L41"
40        ( 79)    1            2.389 (  0.9947) /_   -2.4
40        ( 80)    2           2.4697 (   1.028) /_ -121.3
40        ( 81)    3           2.4264 (    1.01) /_  118.7
------------
42        ( 86)    1           2.3852 (  0.9931) /_   -2.4
42        ( 87)    2            2.467 (   1.027) /_ -121.4
42        ( 88)    3           2.4243 (   1.009) /_  118.7

ELEMENT = "Line.L42"
42        ( 87)    2            2.467 (   1.027) /_ -121.4
------------
43        ( 89)    2           2.4638 (   1.026) /_ -121.4

ELEMENT = "Line.L43"
42        ( 86)    1           2.3852 (  0.9931) /_   -2.4
42        ( 87)    2            2.467 (   1.027) /_ -121.4
42        ( 88)    3           2.4243 (   1.009) /_  118.7
------------
44        ( 90)    1           2.3826 (   0.992) /_   -2.5
44        ( 91)    2           2.4653 (   1.026) /_ -121.4
44        ( 92)    3           2.4223 (   1.009) /_  118.7

ELEMENT = "Line.L44"
44        ( 90)    1           2.3826 (   0.992) /_   -2.5
------------
45        ( 93)    1           2.3813 (  0.9915) /_   -2.5

ELEMENT = "Line.L45"
44        ( 90)    1           2.3826 (   0.992) /_   -2.5
44        ( 91)    2           2.4653 (   1.026) /_ -121.4
44        ( 92)    3           2.4223 (   1.009) /_  118.7
------------
47        ( 94)    1           2.3801 (   0.991) /_   -2.5
47        ( 95)    2           2.4628 (   1.025) /_ -121.4
47        ( 96)    3           2.4199 (   1.008) /_  118.6

ELEMENT = "Line.L46"
45        ( 93)    1           2.3813 (  0.9915) /_   -2.5
------------
46        ( 97)    1           2.3803 (  0.9911) /_   -2.5

ELEMENT = "Line.L47"
47        ( 94)    1           2.3801 (   0.991) /_   -2.5
47        ( 95)    2           2.4628 (   1.025) /_ -121.4
47        ( 96)    3           2.4199 (   1.008) /_  118.6
------------
48        ( 98)    1           2.3794 (  0.9907) /_   -2.5
48        ( 99)    2           2.4621 (   1.025) /_ -121.5
48        (100)    3           2.4194 (   1.007) /_  118.6

ELEMENT = "Line.L48"
47        ( 94)    1           2.3801 (   0.991) /_   -2.5
47        ( 95)    2           2.4628 (   1.025) /_ -121.4
47        ( 96)    3           2.4199 (   1.008) /_  118.6
------------
49        (101)    1           2.3794 (  0.9907) /_   -2.5
49        (102)    2           2.4614 (   1.025) /_ -121.5
49        (103)    3           2.4191 (   1.007) /_  118.6

ELEMENT = "Line.L49"
49        (101)    1           2.3794 (  0.9907) /_   -2.5
49        (102)    2           2.4614 (   1.025) /_ -121.5
49        (103)    3           2.4191 (   1.007) /_  118.6
------------
50        (104)    1           2.3794 (  0.9907) /_   -2.5
50        (105)    2           2.4615 (   1.025) /_ -121.4
50        (106)    3           2.4183 (   1.007) /_  118.6

ELEMENT = "Line.L50"
50        (104)    1           2.3794 (  0.9907) /_   -2.5
50        (105)    2           2.4615 (   1.025) /_ -121.4
50        (106)    3           2.4183 (   1.007) /_  118.6
------------
51        (107)    1            2.379 (  0.9905) /_   -2.5
51        (108)    2           2.4617 (   1.025) /_ -121.4
51        (109)    3           2.4183 (   1.007) /_  118.6

ELEMENT = "Line.L51"
51        (107)    1            2.379 (  0.9905) /_   -2.5
51        (108)    2           2.4617 (   1.025) /_ -121.4
51        (109)    3           2.4183 (   1.007) /_  118.6
------------
151       (110)    1            2.379 (  0.9905) /_   -2.5
151       (111)    2           2.4617 (   1.025) /_ -121.4
151       (112)    3           2.4183 (   1.007) /_  118.6

ELEMENT = "Line.L52"
52        (113)    1           2.4067 (   1.002) /_   -2.2
52        (114)    2           2.4855 (   1.035) /_ -121.2
52        (115)    3           2.4415 (   1.017) /_  118.7
------------
53        (116)    1           2.4002 (  0.9993) /_   -2.4
53        (117)    2           2.4837 (   1.034) /_ -121.3
53        (118)    3           2.4377 (   1.015) /_  118.5

ELEMENT = "Line.L53"
53        (116)    1           2.4002 (  0.9993) /_   -2.4
53        (117)    2           2.4837 (   1.034) /_ -121.3
53        (118)    3           2.4377 (   1.015) /_  118.5
------------
54        (119)    1           2.3965 (  0.9978) /_   -2.5
54        (120)    2           2.4823 (   1.034) /_ -121.4
54        (121)    3           2.4353 (   1.014) /_  118.5

ELEMENT = "Line.L54"
54        (119)    1           2.3965 (  0.9978) /_   -2.5
54        (120)    2           2.4823 (   1.034) /_ -121.4
54        (121)    3           2.4353 (   1.014) /_  118.5
------------
55        (122)    1            2.396 (  0.9976) /_   -2.5
55        (123)    2           2.4821 (   1.033) /_ -121.4
55        (124)    3           2.4355 (   1.014) /_  118.5

ELEMENT = "Line.L55"
54        (119)    1           2.3965 (  0.9978) /_   -2.5
54        (120)    2           2.4823 (   1.034) /_ -121.4
54        (121)    3           2.4353 (   1.014) /_  118.5
------------
57        (125)    1            2.389 (  0.9947) /_   -2.8
57        (126)    2           2.4755 (   1.031) /_ -121.6
57        (127)    3           2.4291 (   1.011) /_  118.2

ELEMENT = "Line.L56"
55        (122)    1            2.396 (  0.9976) /_   -2.5
55        (123)    2           2.4821 (   1.033) /_ -121.4
55        (124)    3           2.4355 (   1.014) /_  118.5
------------
56        (128)    1           2.3959 (  0.9976) /_   -2.5
56        (129)    2           2.4817 (   1.033) /_ -121.4
56        (130)    3           2.4357 (   1.014) /_  118.5

ELEMENT = "Line.L57"
57        (126)    2           2.4755 (   1.031) /_ -121.6
------------
58        (131)    2            2.474 (    1.03) /_ -121.6

ELEMENT = "Line.L58"
57        (125)    1            2.389 (  0.9947) /_   -2.8
57        (126)    2           2.4755 (   1.031) /_ -121.6
57        (127)    3           2.4291 (   1.011) /_  118.2
------------
60        (132)    1           2.3734 (  0.9882) /_   -3.5
60        (133)    2           2.4634 (   1.026) /_ -122.0
60        (134)    3           2.4146 (   1.005) /_  117.8

ELEMENT = "Line.L59"
58        (131)    2            2.474 (    1.03) /_ -121.6
------------
59        (135)    2           2.4732 (    1.03) /_ -121.6

ELEMENT = "Line.L60"
60        (132)    1           2.3734 (  0.9882) /_   -3.5
60        (133)    2           2.4634 (   1.026) /_ -122.0
60        (134)    3           2.4146 (   1.005) /_  117.8
------------
61        (136)    1           2.3734 (  0.9882) /_   -3.5
61        (137)    2           2.4634 (   1.026) /_ -122.0
61        (138)    3           2.4146 (   1.005) /_  117.8

ELEMENT = "Line.L61"
60        (132)    1           2.3734 (  0.9882) /_   -3.5
60        (133)    2           2.4634 (   1.026) /_ -122.0
60        (134)    3           2.4146 (   1.005) /_  117.8
------------
62        (139)    1           2.3716 (  0.9874) /_   -3.5
62        (140)    2           2.4607 (   1.025) /_ -122.0
62        (141)    3           2.4097 (   1.003) /_  117.8

ELEMENT = "Line.L62"
62        (139)    1           2.3716 (  0.9874) /_   -3.5
62        (140)    2           2.4607 (   1.025) /_ -122.0
62        (141)    3           2.4097 (   1.003) /_  117.8
------------
63        (142)    1           2.3701 (  0.9868) /_   -3.5
63        (143)    2           2.4586 (   1.024) /_ -121.9
63        (144)    3           2.4073 (   1.002) /_  117.8

ELEMENT = "Line.L63"
63        (142)    1           2.3701 (  0.9868) /_   -3.5
63        (143)    2           2.4586 (   1.024) /_ -121.9
63        (144)    3           2.4073 (   1.002) /_  117.8
------------
64        (145)    1           2.3693 (  0.9865) /_   -3.4
64        (146)    2           2.4541 (   1.022) /_ -121.9
64        (147)    3           2.4021 (       1) /_  117.7

ELEMENT = "Line.L64"
64        (145)    1           2.3693 (  0.9865) /_   -3.4
64        (146)    2           2.4541 (   1.022) /_ -121.9
64        (147)    3           2.4021 (       1) /_  117.7
------------
65        (148)    1           2.3677 (  0.9858) /_   -3.4
65        (149)    2           2.4533 (   1.021) /_ -121.9
65        (150)    3           2.3949 (  0.9971) /_  117.7

ELEMENT = "Line.L65"
65        (148)    1           2.3677 (  0.9858) /_   -3.4
65        (149)    2           2.4533 (   1.021) /_ -121.9
65        (150)    3           2.3949 (  0.9971) /_  117.7
------------
66        (151)    1           2.3682 (   0.986) /_   -3.5
66        (152)    2           2.4539 (   1.022) /_ -121.8
66        (153)    3           2.3913 (  0.9956) /_  117.7

ELEMENT = "Line.L66"
67        (154)    1           2.4876 (   1.036) /_   -3.7
------------
68        (155)    1           2.4839 (   1.034) /_   -3.8

ELEMENT = "Line.L67"
67        (154)    1           2.4876 (   1.036) /_   -3.7
67        (156)    2           2.4766 (   1.031) /_ -122.2
67        (157)    3            2.485 (   1.035) /_  117.6
------------
72        (158)    1           2.4885 (   1.036) /_   -3.8
72        (159)    2           2.4744 (    1.03) /_ -122.3
72        (160)    3           2.4845 (   1.034) /_  117.5

ELEMENT = "Line.L68"
67        (154)    1           2.4876 (   1.036) /_   -3.7
67        (156)    2           2.4766 (   1.031) /_ -122.2
67        (157)    3            2.485 (   1.035) /_  117.6
------------
97        (161)    1           2.4851 (   1.035) /_   -3.8
97        (162)    2           2.4754 (   1.031) /_ -122.2
97        (163)    3           2.4832 (   1.034) /_  117.6

ELEMENT = "Line.L69"
68        (155)    1           2.4839 (   1.034) /_   -3.8
------------
69        (164)    1           2.4797 (   1.032) /_   -3.8

ELEMENT = "Line.L70"
69        (164)    1           2.4797 (   1.032) /_   -3.8
------------
70        (165)    1           2.4767 (   1.031) /_   -3.8

ELEMENT = "Line.L71"
70        (165)    1           2.4767 (   1.031) /_   -3.8
------------
71        (166)    1            2.475 (    1.03) /_   -3.8

ELEMENT = "Line.L72"
72        (160)    3           2.4845 (   1.034) /_  117.5
------------
73        (167)    3           2.4793 (   1.032) /_  117.5

ELEMENT = "Line.L73"
72        (158)    1           2.4885 (   1.036) /_   -3.8
72        (159)    2           2.4744 (    1.03) /_ -122.3
72        (160)    3           2.4845 (   1.034) /_  117.5
------------
76        (168)    1           2.4883 (   1.036) /_   -3.9
76        (169)    2           2.4732 (    1.03) /_ -122.4
76        (170)    3            2.486 (   1.035) /_  117.5

ELEMENT = "Line.L74"
73        (167)    3           2.4793 (   1.032) /_  117.5
------------
74        (171)    3           2.4749 (    1.03) /_  117.5

ELEMENT = "Line.L75"
74        (171)    3           2.4749 (    1.03) /_  117.5
------------
75        (172)    3           2.4724 (   1.029) /_  117.4

ELEMENT = "Line.L76"
76        (168)    1           2.4883 (   1.036) /_   -3.9
76        (169)    2           2.4732 (    1.03) /_ -122.4
76        (170)    3            2.486 (   1.035) /_  117.5
------------
77        (173)    1           2.4911 (   1.037) /_   -3.9
77        (174)    2           2.4759 (   1.031) /_ -122.4
77        (175)    3           2.4881 (   1.036) /_  117.4

ELEMENT = "Line.L77"
76        (168)    1           2.4883 (   1.036) /_   -3.9
76        (169)    2           2.4732 (    1.03) /_ -122.4
76        (170)    3            2.486 (   1.035) /_  117.5
------------
86        (176)    1           2.4862 (   1.035) /_   -3.9
86        (177)    2           2.4689 (   1.028) /_ -122.5
86        (178)    3           2.4894 (   1.036) /_  117.4

ELEMENT = "Line.L78"
77        (173)    1           2.4911 (   1.037) /_   -3.9
77        (174)    2           2.4759 (   1.031) /_ -122.4
77        (175)    3           2.4881 (   1.036) /_  117.4
------------
78        (179)    1           2.4918 (   1.037) /_   -4.0
78        (180)    2           2.4769 (   1.031) /_ -122.4
78        (181)    3           2.4885 (   1.036) /_  117.4

ELEMENT = "Line.L79"
78        (179)    1           2.4918 (   1.037) /_   -4.0
78        (180)    2           2.4769 (   1.031) /_ -122.4
78        (181)    3           2.4885 (   1.036) /_  117.4
------------
79        (182)    1           2.4911 (   1.037) /_   -4.0
79        (183)    2           2.4772 (   1.031) /_ -122.4
79        (184)    3           2.4884 (   1.036) /_  117.4

ELEMENT = "Line.L80"
78        (179)    1           2.4918 (   1.037) /_   -4.0
78        (180)    2           2.4769 (   1.031) /_ -122.4
78        (181)    3           2.4885 (   1.036) /_  117.4
------------
80        (185)    1           2.4968 (    1.04) /_   -4.0
80        (186)    2           2.4809 (   1.033) /_ -122.5
80        (187)    3           2.4906 (   1.037) /_  117.3

ELEMENT = "Line.L81"
80        (185)    1           2.4968 (    1.04) /_   -4.0
80        (186)    2           2.4809 (   1.033) /_ -122.5
80        (187)    3           2.4906 (   1.037) /_  117.3
------------
81        (188)    1           2.4988 (    1.04) /_   -4.1
81        (189)    2           2.4829 (   1.034) /_ -122.5
81        (190)    3           2.4911 (   1.037) /_  117.2

ELEMENT = "Line.L82"
81        (188)    1           2.4988 (    1.04) /_   -4.1
81        (189)    2           2.4829 (   1.034) /_ -122.5
81        (190)    3           2.4911 (   1.037) /_  117.2
------------
82        (191)    1           2.5008 (   1.041) /_   -4.1
82        (192)    2            2.486 (   1.035) /_ -122.5
82        (193)    3            2.493 (   1.038) /_  117.2

ELEMENT = "Line.L83"
81        (190)    3           2.4911 (   1.037) /_  117.2
------------
84        (194)    3           2.4849 (   1.035) /_  117.2

ELEMENT = "Line.L84"
82        (191)    1           2.5008 (   1.041) /_   -4.1
82        (192)    2            2.486 (   1.035) /_ -122.5
82        (193)    3            2.493 (   1.038) /_  117.2
------------
83        (195)    1           2.5037 (   1.042) /_   -4.1
83        (196)    2           2.4886 (   1.036) /_ -122.6
83        (197)    3            2.495 (   1.039) /_  117.2

ELEMENT = "Line.L85"
84        (194)    3           2.4849 (   1.035) /_  117.2
------------
85        (198)    3            2.482 (   1.033) /_  117.2

ELEMENT = "Line.L86"
86        (176)    1           2.4862 (   1.035) /_   -3.9
86        (177)    2           2.4689 (   1.028) /_ -122.5
86        (178)    3           2.4894 (   1.036) /_  117.4
------------
87        (199)    1            2.485 (   1.035) /_   -3.9
87        (200)    2            2.467 (   1.027) /_ -122.6
87        (201)    3           2.4908 (   1.037) /_  117.4

ELEMENT = "Line.L87"
87        (199)    1            2.485 (   1.035) /_   -3.9
------------
88        (202)    1           2.4849 (   1.035) /_   -4.0

ELEMENT = "Line.L88"
87        (199)    1            2.485 (   1.035) /_   -3.9
87        (200)    2            2.467 (   1.027) /_ -122.6
87        (201)    3           2.4908 (   1.037) /_  117.4
------------
89        (203)    1           2.4839 (   1.034) /_   -3.9
89        (204)    2           2.4664 (   1.027) /_ -122.7
89        (205)    3           2.4917 (   1.037) /_  117.4

ELEMENT = "Line.L89"
89        (204)    2           2.4664 (   1.027) /_ -122.7
------------
90        (206)    2           2.4661 (   1.027) /_ -122.7

ELEMENT = "Line.L90"
89        (203)    1           2.4839 (   1.034) /_   -3.9
89        (204)    2           2.4664 (   1.027) /_ -122.7
89        (205)    3           2.4917 (   1.037) /_  117.4
------------
91        (207)    1           2.4834 (   1.034) /_   -3.9
91        (208)    2           2.4656 (   1.027) /_ -122.7
91        (209)    3           2.4922 (   1.038) /_  117.4

ELEMENT = "Line.L91"
91        (209)    3           2.4922 (   1.038) /_  117.4
------------
92        (210)    3           2.4921 (   1.038) /_  117.3

ELEMENT = "Line.L92"
91        (207)    1           2.4834 (   1.034) /_   -3.9
91        (208)    2           2.4656 (   1.027) /_ -122.7
91        (209)    3           2.4922 (   1.038) /_  117.4
------------
93        (211)    1           2.4827 (   1.034) /_   -3.9
93        (212)    2           2.4652 (   1.026) /_ -122.7
93        (213)    3           2.4925 (   1.038) /_  117.4

ELEMENT = "Line.L93"
93        (211)    1           2.4827 (   1.034) /_   -3.9
------------
94        (214)    1            2.481 (   1.033) /_   -3.9

ELEMENT = "Line.L94"
93        (211)    1           2.4827 (   1.034) /_   -3.9
93        (212)    2           2.4652 (   1.026) /_ -122.7
93        (213)    3           2.4925 (   1.038) /_  117.4
------------
95        (215)    1           2.4826 (   1.034) /_   -3.9
95        (216)    2           2.4643 (   1.026) /_ -122.7
95        (217)    3           2.4929 (   1.038) /_  117.4

ELEMENT = "Line.L95"
95        (216)    2           2.4643 (   1.026) /_ -122.7
------------
96        (218)    2           2.4636 (   1.026) /_ -122.7

ELEMENT = "Line.L96"
97        (161)    1           2.4851 (   1.035) /_   -3.8
97        (162)    2           2.4754 (   1.031) /_ -122.2
97        (163)    3           2.4832 (   1.034) /_  117.6
------------
98        (219)    1           2.4847 (   1.035) /_   -3.8
98        (220)    2           2.4748 (    1.03) /_ -122.2
98        (221)    3           2.4827 (   1.034) /_  117.6

ELEMENT = "Line.L97"
98        (219)    1           2.4847 (   1.035) /_   -3.8
98        (220)    2           2.4748 (    1.03) /_ -122.2
98        (221)    3           2.4827 (   1.034) /_  117.6
------------
99        (222)    1           2.4854 (   1.035) /_   -3.8
99        (223)    2           2.4728 (    1.03) /_ -122.2
99        (224)    3           2.4819 (   1.033) /_  117.6

ELEMENT = "Line.L98"
99        (222)    1           2.4854 (   1.035) /_   -3.8
99        (223)    2           2.4728 (    1.03) /_ -122.2
99        (224)    3           2.4819 (   1.033) /_  117.6
------------
100       (225)    1           2.4858 (   1.035) /_   -3.8
100       (226)    2           2.4726 (    1.03) /_ -122.2
100       (227)    3           2.4809 (   1.033) /_  117.6

ELEMENT = "Line.L99"
100       (225)    1           2.4858 (   1.035) /_   -3.8
100       (226)    2           2.4726 (    1.03) /_ -122.2
100       (227)    3           2.4809 (   1.033) /_  117.6
------------
450       (228)    1           2.4858 (   1.035) /_   -3.8
450       (229)    2           2.4726 (    1.03) /_ -122.2
450       (230)    3           2.4809 (   1.033) /_  117.6

ELEMENT = "Line.L118"
197       (231)    1           2.4851 (   1.035) /_   -3.8
197       (232)    2           2.4754 (   1.031) /_ -122.2
197       (233)    3           2.4832 (   1.034) /_  117.6
------------
101       (234)    1           2.4832 (   1.034) /_   -3.8
101       (235)    2           2.4747 (    1.03) /_ -122.2
101       (236)    3           2.4819 (   1.033) /_  117.6

ELEMENT = "Line.L100"
101       (236)    3           2.4819 (   1.033) /_  117.6
------------
102       (237)    3           2.4785 (   1.032) /_  117.6

ELEMENT = "Line.L101"
101       (234)    1           2.4832 (   1.034) /_   -3.8
101       (235)    2           2.4747 (    1.03) /_ -122.2
101       (236)    3           2.4819 (   1.033) /_  117.6
------------
...